** Calculix structure data file generated from OpenVSP 3.43.0
** PodGeom_Struct0
** Num_Nodes:       13538
** Num_Els:         4512
** Num_Tris:        0
** Num_Quads:       4512
** Num_Beams:       0
** Node_Offset:     0
** Element_Offset:  0

** Skin PodGeom_Struct0
*NODE, NSET=NSkin_PodGeom_Struct0
1,0.000000,0.000000,0.000000
2,0.019311,0.000000,0.023578
3,0.025270,0.021575,0.021575
4,0.019311,0.023578,0.000000
5,0.009656,0.000000,0.011789
6,0.022291,0.010788,0.022576
7,0.022291,0.022576,0.010788
8,0.009656,0.011789,0.000000
9,0.046533,0.000000,0.054134
10,0.038589,0.032175,0.032175
11,0.042561,0.016088,0.043154
12,0.031929,0.026875,0.026875
13,0.032922,0.000000,0.038856
14,0.046533,0.054134,0.000000
15,0.032922,0.038856,0.000000
16,0.042561,0.043154,0.016088
17,4.735049,0.000000,0.666562
18,4.867521,0.113032,0.657082
19,4.823756,0.192348,0.638407
20,4.735627,0.176369,0.642940
** ... 13518 like lines cut

** Skin PodGeom_Struct0
*ELEMENT, TYPE=S8, ELSET=ESkin_PodGeom_Struct0_0
2,1,2,3,4,5,6,7,8
3,9,10,3,2,11,12,6,13
4,14,4,3,10,15,7,12,16
5,17,18,19,20,21,22,23,24
6,25,26,19,18,27,28,22,29
7,30,20,19,26,31,23,28,32
8,33,34,35,36,37,38,39,40
9,41,42,35,34,43,44,38,45
10,46,36,35,42,47,39,44,48
11,49,50,51,52,53,54,55,56
12,46,57,51,50,58,59,54,60
13,61,52,51,57,62,55,59,63
14,61,64,65,52,66,67,68,62
15,69,70,65,64,71,72,67,73
16,49,52,65,70,56,68,72,74
17,25,75,76,26,77,78,79,27
18,80,81,76,75,82,83,78,84
19,30,26,76,81,32,79,83,85
20,30,86,87,20,88,89,90,31
21,91,92,87,86,93,94,89,95
** ... 4492 like lines cut

** Properties PodGeom_Struct0

*SHELL SECTION, ELSET=ESkin_PodGeom_Struct0_0, MATERIAL=Aluminum_6061-T6, ORIENTATION=OSkin_PodGeom_Struct0_0
0.00833333

*ORIENTATION, NAME=OSkin_PodGeom_Struct0_0, SYSTEM=RECTANGULAR
1.000000,0.000000,0.000000,0.0,0.0,1.0


** Materials
*MATERIAL, NAME=Aluminum_6061-T6
*DENSITY
5.26338
*ELASTIC, TYPE=ISO
1.4256e+09, 0.33
*EXPANSION, TYPE=ISO
1.3e-05

